44
	Energy:     421.8767080
C         -8.56700       -8.52700      -21.44300
C         -7.28200       -9.20100      -20.95500
C         -6.17466       -9.17426      -22.14407
C         -6.27937      -10.18004      -23.11934
N         -5.02995       -8.34327      -22.51773
C         -4.46437       -9.08469      -23.46769
N         -5.19323      -10.11098      -23.89379
H         -6.87335       -8.56377      -20.14221
H         -7.48206      -10.21069      -20.53750
H         -7.05847      -10.93631      -23.27713
H         -3.52025       -8.83188      -23.86078
H         -4.90930      -10.69523      -24.70435
C         -8.25500       -3.32200      -24.85300
C         -6.99600       -4.16300      -25.06800
C         -6.41174       -4.43046      -23.76518
C         -6.03319       -5.61916      -23.36637
N         -6.11831       -3.44629      -22.82092
C         -5.46471       -4.13337      -21.75850
N         -5.38398       -5.53950      -22.11756
H         -7.25856       -5.11640      -25.57865
H         -6.29807       -3.59239      -25.71704
H         -6.32236       -2.43743      -22.88219
H         -6.03692       -6.48772      -24.01647
H         -5.05151       -3.60154      -20.88605
Co        -3.80895       -6.61223      -22.25140
O         -4.00939       -7.14377      -20.58486
O         -2.27923       -7.61448      -22.35238
O         -3.50284       -5.80873      -23.92134
N         -2.64550       -5.17018      -21.59575
O         -3.26523       -3.64500      -24.69873
O         -0.05139       -7.55779      -22.11396
O         -4.17518       -6.28577      -18.58467
C         -1.13007       -6.98649      -22.06545
C         -3.77127       -6.17718      -19.72286
C         -3.13576       -4.47130      -23.80060
C         -3.02321       -4.95585      -20.20672
C         -2.69960       -4.00098      -22.44959
C         -1.24018       -5.58978      -21.58328
H         -8.76917       -3.17556      -25.82614
H         -8.00975       -2.31780      -24.44836
H         -8.95792       -3.83708      -24.16217
H         -9.01907       -9.11905      -22.26643
H         -8.34339       -7.50253      -21.81093
H         -9.29525       -8.45872      -20.60772
