50
	Energy:     320.9935204
Co        -6.42800        1.69000      -12.01600
C         -1.63300        1.74700       -8.16900
C         -1.41722        1.15335       -9.57926
C         -2.59230        1.09780      -10.56527
C         -3.86269        1.49104      -10.42897
N         -2.42777        0.57327      -11.86720
C         -3.67384        0.64513      -12.58914
N         -4.58164        1.23266      -11.63665
H         -1.04811        0.11379       -9.44856
H         -0.61041        1.74291      -10.06443
H         -1.54548        0.20456      -12.25036
H         -4.29025        1.93961       -9.54259
H         -3.56439        1.30655      -13.47376
C         -6.81600       -0.93500       -5.98500
C         -6.58293        0.02676       -7.45981
C         -7.07377       -0.30970       -9.03400
C         -7.74044       -1.51627       -9.02685
N         -7.05836        0.17067      -10.45752
C         -7.68231       -0.87832      -11.06911
N         -8.09951       -1.85002      -10.25475
H         -5.48353        0.16040       -7.53424
H         -7.01601        1.02185       -7.22866
H         -7.94188       -2.14244       -8.16740
H         -7.85621       -0.99656      -12.10227
H         -8.60151       -2.72141      -10.53580
O         -6.49376        2.88664      -10.66209
O         -5.92566        2.94940      -13.21596
O         -6.50331        0.48047      -13.36107
N         -8.25611        2.21502      -12.43094
O         -7.92523       -0.37124      -14.85949
O         -6.58278        4.75121      -14.33079
O         -8.01769        3.49203       -9.13259
C         -6.86282        3.78494      -13.63997
C         -7.77419        3.01485      -10.22849
C         -7.71420        0.43096      -13.96467
C         -8.87008        2.42990      -11.10456
H         -9.22925        1.49005      -10.63790
H         -9.74957        3.10918      -11.18049
C         -8.84680        1.16220      -13.28940
H         -9.56197        1.56246      -14.03997
H         -9.44399        0.43441      -12.70339
C         -8.22702        3.52973      -13.16236
H         -8.47731        4.40230      -12.51580
H         -8.93611        3.57103      -14.01670
H         -7.90130       -1.05882       -5.79068
H         -6.34578       -0.41595       -5.12436
H         -6.34686       -1.93221       -6.11335
H         -2.40751        1.16264       -7.62885
H         -1.96607        2.80293       -8.25181
H         -0.68384        1.71011       -7.59384
