50
	Energy:     172.5293792
Co        -7.83737        0.08429      -12.02593
C         -3.04237        0.14129       -8.17893
C         -2.81537        0.25229       -9.68793
C         -4.00488       -0.16571      -10.52947
C         -5.20949        0.40170      -10.57611
N         -3.96086       -1.24029      -11.44139
C         -5.23628       -1.35455      -12.09863
N         -6.00947       -0.27550      -11.53203
H         -1.94870       -0.39241       -9.94840
H         -2.55262        1.30153       -9.94133
H         -3.14680       -1.84730      -11.61427
H         -5.52927        1.25485       -9.99330
H         -5.11898       -1.20651      -13.19235
C         -8.22537       -2.54071       -5.99493
C         -7.87037       -3.12771       -7.36193
C         -8.15539       -1.96608       -8.38781
C         -7.97377       -1.92931       -9.72136
N         -8.65123       -0.68885       -8.00747
C         -8.76150        0.17337       -9.14369
N         -8.35198       -0.64460      -10.25789
H         -8.50134       -4.01194       -7.59213
H         -6.79657       -3.40926       -7.39337
H         -7.56970       -2.74031      -10.31173
H         -9.81634        0.47787       -9.24541
O         -7.75940        1.74775      -11.32391
O         -7.25270        0.75111      -13.59384
O         -8.05543       -1.56258      -12.75282
N         -9.65286        0.45419      -12.59659
O         -9.69991       -3.07612      -12.90729
O         -7.91719        1.37033      -15.61706
O         -9.10602        3.39148      -10.64020
C         -8.20205        1.01777      -14.48398
C         -8.97020        2.33783      -11.24006
C         -9.36335       -1.91340      -12.75632
C        -10.15777        1.59498      -11.79265
H        -10.80897        1.27020      -10.95988
H        -10.79745        2.28306      -12.38534
C        -10.36498       -0.83009      -12.42645
H        -10.70552       -0.99398      -11.38226
H        -11.26374       -0.87489      -13.08232
C         -9.60427        0.80888      -14.05960
H         -7.58040       -1.66975       -5.74702
H         -8.03766       -3.31486       -5.22170
H         -9.30353       -2.27688       -5.93475
H         -3.27820       -0.90931       -7.90619
H         -3.88526        0.79499       -7.86962
H         -2.12613        0.45752       -7.63720
H        -10.19257        1.71727      -14.30944
H         -9.99790        0.00034      -14.71689
H         -8.89398       -0.36556       -7.06206
