50
	Energy:     450.7890553
Co        -6.85316        0.96325      -10.95126
C         -2.05816        1.02025       -7.10426
C         -1.83116        1.13125       -8.61326
C         -3.09920        1.58230       -9.29873
C         -4.19419        0.86141       -9.46788
N         -3.28000        2.85082       -9.87705
C         -4.59885        2.91879      -10.45309
H         -1.47484        0.17383       -9.04968
H         -1.04663        1.90273       -8.76817
H         -2.57996        3.60618       -9.89810
C         -7.74582        1.32198       -6.48755
C         -6.74503        0.97379       -7.58928
C         -7.26440       -0.06243       -8.58165
C         -8.52100       -0.58800       -8.62200
N         -6.60100       -0.52300       -9.66400
C         -7.30005       -1.61173      -10.02139
N         -8.50380       -1.64072       -9.44535
H         -5.84566        0.54278       -7.10039
H         -6.43228        1.91903       -8.06612
H         -9.34957       -0.36380       -7.96299
H         -6.99817       -2.30540      -10.79126
H         -9.27139       -2.32829       -9.61341
O         -7.87130        2.04107       -9.88021
O         -6.81253        2.44807      -11.98473
O         -6.00158       -0.03657      -12.20283
N         -8.54177        0.54333      -11.92137
O         -6.41179       -1.77056      -13.56769
O         -7.67246        3.55630      -13.69337
O         -9.99697        2.34236       -9.23013
C         -7.71472        2.60563      -12.92894
C         -9.21008        1.81351       -9.99788
C         -6.85231       -0.87940      -12.86061
C         -9.67304        0.76602      -10.99507
H        -10.03366       -0.15024      -10.51016
H        -10.60056        1.09953      -11.50851
C         -8.35250       -0.76538      -12.58343
H         -8.94760       -0.85700      -13.52090
H         -8.73915       -1.61707      -12.00045
C         -8.70106        1.54598      -13.05391
H         -9.70684        2.01516      -13.11934
H         -8.51194        1.13170      -14.07154
N         -5.17476        1.61466      -10.17582
H         -4.49208        3.07065      -11.54746
H         -4.28976       -0.16212       -9.13635
H         -2.83300        0.25471       -6.88569
H         -2.38429        1.99803       -6.68887
H         -1.11222        0.71870       -6.60729
H         -8.65326        1.79214       -6.91955
H         -7.28295        2.04102       -5.77906
H         -8.03411        0.40935       -5.92357
