50
	Energy:     467.7808445
Co        -1.94816        2.32032      -12.07961
C          2.84684        2.37732       -8.23261
C          3.07384        2.48832       -9.74161
C          1.65644        1.73378      -10.62237
C          2.08910        0.41208      -10.67964
N          0.22639        1.68121      -11.29638
C          0.16576        0.34204      -11.57278
N          1.21178       -0.39043      -11.23301
H          4.05015        2.05393      -10.04991
H          3.09426        3.56779      -10.00089
H          3.02859        0.02678      -10.29949
H         -0.66883       -0.16379      -12.00224
H          1.31272       -1.42208      -11.36032
C         -2.33616       -0.30468       -6.04861
C         -1.98116       -0.89168       -7.41561
C         -2.45530       -0.23755       -8.74924
C         -2.02604        0.93120       -9.39715
N         -3.29100       -0.85693       -9.60466
C         -3.33121       -0.12007      -10.73899
N         -2.55936        0.99319      -10.66580
H         -2.39787       -1.92201       -7.40270
H         -0.87660       -0.99308       -7.47599
H         -3.76268       -1.77675       -9.45713
H         -1.29267        1.62575       -9.01023
H         -3.86380       -0.45886      -11.60760
O         -2.03270        3.58689      -10.80299
O         -1.25758        3.44929      -13.30770
O         -1.95870        0.99634      -13.31626
N         -3.67659        2.81555      -12.68933
O         -3.24113       -0.26371      -14.64097
O         -1.61592        5.02902      -14.83059
O         -3.48822        4.81720       -9.63062
C         -2.04704        4.12670      -13.92949
C         -3.19717        3.93315      -10.60266
C         -3.06598        0.76716      -13.79360
C         -4.30128        3.28439      -11.43546
H         -4.71186        2.44354      -10.83812
H         -5.14529        3.98030      -11.63647
C         -4.23570        1.62033      -13.35205
H         -4.87030        1.88832      -14.22323
H         -4.91254        1.04517      -12.69288
C         -3.49206        3.94808      -13.64989
H         -3.86872        4.91761      -13.25351
H         -4.01565        3.78225      -14.61554
H         -1.91343        0.71815       -5.96149
H         -1.91827       -0.94073       -5.23960
H         -3.43963       -0.25102       -5.93758
H          1.88370        2.85738       -7.95898
H          3.67271        2.88388       -7.69046
H          2.81912        1.30932       -7.93157
